                                   MODFLOW 6
                U.S. GEOLOGICAL SURVEY MODULAR HYDROLOGIC MODEL
                        VERSION 6.4.1 Release 12/09/2022

   MODFLOW 6 compiled Dec 09 2022 18:18:37 with Intel(R) Fortran Intel(R) 64
   Compiler Classic for applications running on Intel(R) 64, Version 2021.7.0
                             Build 20220726_000000

This software has been approved for release by the U.S. Geological 
Survey (USGS). Although the software has been subjected to rigorous 
review, the USGS reserves the right to update the software as needed 
pursuant to further analysis and review. No warranty, expressed or 
implied, is made by the USGS or the U.S. Government as to the 
functionality of the software and related material nor shall the 
fact of release constitute any such warranty. Furthermore, the 
software is released on condition that neither the USGS nor the U.S. 
Government shall be held liable for any damages resulting from its 
authorized or unauthorized use. Also refer to the USGS Water 
Resources Software User Rights Notice for complete use, copyright, 
and distribution information.


As a work of the United States Government, this USGS product is 
in the public domain within the United States. You can copy, 
modify, distribute, and perform the work, even for commercial 
purposes, all without asking permission. Additionally, USGS 
waives copyright and related rights in the work worldwide 
through CC0 1.0 Universal Public Domain Dedication 
(https://creativecommons.org/publicdomain/zero/1.0/).

The following GNU Lesser General Public License (LGPL) libraries
are used in this USGS product:

    SPARSKIT version 2.0
      ilut, luson, and qsplit 
      (https://www-users.cse.umn.edu/~saad/software/SPARSKIT/)

    RCM - Reverse Cuthill McKee Ordering
      (https://people.math.sc.edu/Burkardt/f_src/rcm/rcm.html)

    BLAS - Basic Linear Algebra Subprograms Level 1
      (https://people.math.sc.edu/Burkardt/f_src/blas1_d/blas1_d.html)

    SPARSEKIT - Sparse Matrix Utility Package
      amux, dperm, dvperm, rperm, and cperm
      (https://people.sc.fsu.edu/~jburkardt/f77_src/sparsekit/sparsekit.html)

The following BSD-3 License libraries are used in this USGS product:

    Modern Fortran DAG Library
      Copyright (c) 2018, Jacob Williams
      All rights reserved.
      (https://github.com/jacobwilliams/daglib)

MODFLOW 6 compiler options: /Isrc\libmf6core.a.p /Isrc /I..\src
/Isrc\libmf6_external.a.p /MTd /nologo /warn:general /warn:truncated_source
/stand:f08 /Zi /traceback /O2 /fpe:0 /heap-arrays:0 /traceback /fpp
/Qdiag-disable:7416 /Qdiag-disable:7025 /Qdiag-disable:5268
/Fdsrc\libmf6core.a.p\Utilities_compilerversion.F90.pdb
/module:src\libmf6core.a.p
/Fosrc/libmf6core.a.p/Utilities_compilerversion.F90.obj /c

System command used to initiate simulation:
exe/mf6.exe

MODFLOW was compiled using uniform precision.

Real Variables
  KIND: 8
  TINY (smallest non-zero value):    2.225074-308
  HUGE (largest value):    1.797693+308
  PRECISION: 15
  SIZE IN BITS: 64

Integer Variables
  KIND: 4
  HUGE (largest value): 2147483647
  SIZE IN BITS: 32

Long Integer Variables
  KIND: 8
  HUGE (largest value): 9223372036854775807
  SIZE IN BITS: 64

Logical Variables
  KIND: 4
  SIZE IN BITS: 32
 

 OPENED mfsim.nam
 FILE TYPE:NAM   UNIT 1001   STATUS:OLD                 
 FORMAT:FORMATTED              ACCESS:SEQUENTIAL          
 ACTION:READ                

 # File generated by Flopy version 3.3.5 on 01/07/2023 at 17:04:51.

 READING SIMULATION OPTIONS
 END OF SIMULATION OPTIONS

 READING SIMULATION TIMING

 OPENED modflow_project.tdis
 FILE TYPE:TDIS   UNIT 1002   STATUS:OLD                 
 FORMAT:FORMATTED              ACCESS:SEQUENTIAL          
 ACTION:READ                


 TDIS -- TEMPORAL DISCRETIZATION PACKAGE,
 VERSION 1 : 11/13/2014 - INPUT READ FROM UNIT 1002
 # File generated by Flopy version 3.3.5 on 01/07/2023 at 17:04:51.
 PROCESSING TDIS OPTIONS
    SIMULATION TIME UNIT IS SECONDS
 END OF TDIS OPTIONS
 PROCESSING TDIS DIMENSIONS
    1 STRESS PERIOD(S) IN SIMULATION
 END OF TDIS DIMENSIONS
 PROCESSING TDIS PERIODDATA


 STRESS PERIOD     LENGTH       TIME STEPS     MULTIPLIER FOR DELT
 ----------------------------------------------------------------------------
        1         0.000000    8640000                    1.000

 PERLEN IS ZERO FOR STRESS PERIOD 1. PERLEN MUST NOT BE ZERO FOR TRANSIENT PERIODS.
 END OF TDIS PERIODDATA
 END OF SIMULATION TIMING

 READING SIMULATION MODELS
    GWF6 model MODFLOW_PROJECT will be created as model 1
 END OF SIMULATION MODELS

 READING SIMULATION EXCHANGES
 END OF SIMULATION EXCHANGES

 READING SOLUTIONGROUP

 Creating solution: SLN_1           

 OPENED modflow_project.ims
 FILE TYPE:IMS   UNIT 1011   STATUS:OLD                 
 FORMAT:FORMATTED              ACCESS:SEQUENTIAL          
 ACTION:READ                

 END OF SIMULATION SOLUTIONGROUP

ERROR REPORT:

    1. CELL (1,1,8) THICKNESS <= 0. TOP, BOT:     1.00000000000000
       75.0000000000000
    2. CELL (1,1,9) THICKNESS <= 0. TOP, BOT:     1.00000000000000
       75.0000000000000
    3. CELL (1,1,10) THICKNESS <= 0. TOP, BOT:     1.00000000000000
       75.0000000000000
    4. CELL (1,1,11) THICKNESS <= 0. TOP, BOT:     1.00000000000000
       75.0000000000000
    5. CELL (1,1,13) THICKNESS <= 0. TOP, BOT:     1.00000000000000
       75.0000000000000
    6. CELL (1,1,14) THICKNESS <= 0. TOP, BOT:     1.00000000000000
       75.0000000000000
    7. CELL (1,1,15) THICKNESS <= 0. TOP, BOT:     1.00000000000000
       75.0000000000000
    8. CELL (1,1,16) THICKNESS <= 0. TOP, BOT:     1.00000000000000
       75.0000000000000
    9. CELL (1,1,17) THICKNESS <= 0. TOP, BOT:     1.00000000000000
       75.0000000000000
   10. CELL (1,1,18) THICKNESS <= 0. TOP, BOT:     1.00000000000000
       75.0000000000000
   11. CELL (1,1,19) THICKNESS <= 0. TOP, BOT:     1.00000000000000
       75.0000000000000
   12. CELL (1,1,20) THICKNESS <= 0. TOP, BOT:     1.00000000000000
       75.0000000000000
   13. CELL (1,2,8) THICKNESS <= 0. TOP, BOT:     1.00000000000000
       75.0000000000000
   14. CELL (1,2,9) THICKNESS <= 0. TOP, BOT:     1.00000000000000
       75.0000000000000
   15. CELL (1,2,10) THICKNESS <= 0. TOP, BOT:     1.00000000000000
       75.0000000000000
   16. CELL (1,2,11) THICKNESS <= 0. TOP, BOT:     1.00000000000000
       75.0000000000000
   17. CELL (1,2,13) THICKNESS <= 0. TOP, BOT:     1.00000000000000
       75.0000000000000
   18. CELL (1,2,14) THICKNESS <= 0. TOP, BOT:     1.00000000000000
       75.0000000000000
   19. CELL (1,2,15) THICKNESS <= 0. TOP, BOT:     1.00000000000000
       75.0000000000000
   20. CELL (1,2,16) THICKNESS <= 0. TOP, BOT:     1.00000000000000
       75.0000000000000
   21. CELL (1,2,17) THICKNESS <= 0. TOP, BOT:     1.00000000000000
       75.0000000000000
   22. CELL (1,2,18) THICKNESS <= 0. TOP, BOT:     1.00000000000000
       75.0000000000000
   23. CELL (1,2,19) THICKNESS <= 0. TOP, BOT:     1.00000000000000
       75.0000000000000
   24. CELL (1,2,20) THICKNESS <= 0. TOP, BOT:     1.00000000000000
       75.0000000000000
   25. CELL (1,3,8) THICKNESS <= 0. TOP, BOT:     1.00000000000000
       75.0000000000000
   26. CELL (1,3,9) THICKNESS <= 0. TOP, BOT:     1.00000000000000
       75.0000000000000
   27. CELL (1,3,10) THICKNESS <= 0. TOP, BOT:     1.00000000000000
       75.0000000000000
   28. CELL (1,3,11) THICKNESS <= 0. TOP, BOT:     1.00000000000000
       75.0000000000000
   29. CELL (1,3,13) THICKNESS <= 0. TOP, BOT:     1.00000000000000
       75.0000000000000
   30. CELL (1,3,14) THICKNESS <= 0. TOP, BOT:     1.00000000000000
       75.0000000000000
   31. CELL (1,3,15) THICKNESS <= 0. TOP, BOT:     1.00000000000000
       75.0000000000000
   32. CELL (1,3,16) THICKNESS <= 0. TOP, BOT:     1.00000000000000
       75.0000000000000
   33. CELL (1,3,17) THICKNESS <= 0. TOP, BOT:     1.00000000000000
       75.0000000000000
   34. CELL (1,3,18) THICKNESS <= 0. TOP, BOT:     1.00000000000000
       75.0000000000000
   35. CELL (1,3,19) THICKNESS <= 0. TOP, BOT:     1.00000000000000
       75.0000000000000
   36. CELL (1,3,20) THICKNESS <= 0. TOP, BOT:     1.00000000000000
       75.0000000000000
   37. CELL (1,4,8) THICKNESS <= 0. TOP, BOT:     1.00000000000000
       75.0000000000000
   38. CELL (1,4,9) THICKNESS <= 0. TOP, BOT:     1.00000000000000
       75.0000000000000
   39. CELL (1,4,10) THICKNESS <= 0. TOP, BOT:     1.00000000000000
       75.0000000000000
   40. CELL (1,4,11) THICKNESS <= 0. TOP, BOT:     1.00000000000000
       75.0000000000000
   41. CELL (1,4,13) THICKNESS <= 0. TOP, BOT:     1.00000000000000
       75.0000000000000
   42. CELL (1,4,14) THICKNESS <= 0. TOP, BOT:     1.00000000000000
       75.0000000000000
   43. CELL (1,4,15) THICKNESS <= 0. TOP, BOT:     1.00000000000000
       75.0000000000000
   44. CELL (1,4,16) THICKNESS <= 0. TOP, BOT:     1.00000000000000
       75.0000000000000
   45. CELL (1,4,17) THICKNESS <= 0. TOP, BOT:     1.00000000000000
       75.0000000000000
   46. CELL (1,4,18) THICKNESS <= 0. TOP, BOT:     1.00000000000000
       75.0000000000000
   47. CELL (1,4,19) THICKNESS <= 0. TOP, BOT:     1.00000000000000
       75.0000000000000
   48. CELL (1,4,20) THICKNESS <= 0. TOP, BOT:     1.00000000000000
       75.0000000000000
   49. CELL (1,5,8) THICKNESS <= 0. TOP, BOT:     1.00000000000000
       75.0000000000000
   50. CELL (1,5,9) THICKNESS <= 0. TOP, BOT:     1.00000000000000
       75.0000000000000
   51. CELL (1,5,10) THICKNESS <= 0. TOP, BOT:     1.00000000000000
       75.0000000000000
   52. CELL (1,5,11) THICKNESS <= 0. TOP, BOT:     1.00000000000000
       75.0000000000000
   53. CELL (1,5,13) THICKNESS <= 0. TOP, BOT:     1.00000000000000
       75.0000000000000
   54. CELL (1,5,14) THICKNESS <= 0. TOP, BOT:     1.00000000000000
       75.0000000000000
   55. CELL (1,5,15) THICKNESS <= 0. TOP, BOT:     1.00000000000000
       75.0000000000000
   56. CELL (1,5,16) THICKNESS <= 0. TOP, BOT:     1.00000000000000
       75.0000000000000
   57. CELL (1,5,17) THICKNESS <= 0. TOP, BOT:     1.00000000000000
       75.0000000000000
   58. CELL (1,5,18) THICKNESS <= 0. TOP, BOT:     1.00000000000000
       75.0000000000000
   59. CELL (1,5,19) THICKNESS <= 0. TOP, BOT:     1.00000000000000
       75.0000000000000
   60. CELL (1,5,20) THICKNESS <= 0. TOP, BOT:     1.00000000000000
       75.0000000000000
   61. CELL (1,6,8) THICKNESS <= 0. TOP, BOT:     1.00000000000000
       75.0000000000000
   62. CELL (1,6,9) THICKNESS <= 0. TOP, BOT:     1.00000000000000
       75.0000000000000
   63. CELL (1,6,10) THICKNESS <= 0. TOP, BOT:     1.00000000000000
       75.0000000000000
   64. CELL (1,6,11) THICKNESS <= 0. TOP, BOT:     1.00000000000000
       75.0000000000000
   65. CELL (1,6,13) THICKNESS <= 0. TOP, BOT:     1.00000000000000
       75.0000000000000
   66. CELL (1,6,14) THICKNESS <= 0. TOP, BOT:     1.00000000000000
       75.0000000000000
   67. CELL (1,6,15) THICKNESS <= 0. TOP, BOT:     1.00000000000000
       75.0000000000000
   68. CELL (1,6,16) THICKNESS <= 0. TOP, BOT:     1.00000000000000
       75.0000000000000
   69. CELL (1,6,17) THICKNESS <= 0. TOP, BOT:     1.00000000000000
       75.0000000000000
   70. CELL (1,6,18) THICKNESS <= 0. TOP, BOT:     1.00000000000000
       75.0000000000000
   71. CELL (1,6,19) THICKNESS <= 0. TOP, BOT:     1.00000000000000
       75.0000000000000
   72. CELL (1,6,20) THICKNESS <= 0. TOP, BOT:     1.00000000000000
       75.0000000000000
   73. CELL (1,7,8) THICKNESS <= 0. TOP, BOT:     1.00000000000000
       75.0000000000000
   74. CELL (1,7,9) THICKNESS <= 0. TOP, BOT:     1.00000000000000
       75.0000000000000
   75. CELL (1,7,10) THICKNESS <= 0. TOP, BOT:     1.00000000000000
       75.0000000000000
   76. CELL (1,7,11) THICKNESS <= 0. TOP, BOT:     1.00000000000000
       75.0000000000000
   77. CELL (1,7,13) THICKNESS <= 0. TOP, BOT:     1.00000000000000
       75.0000000000000
   78. CELL (1,7,14) THICKNESS <= 0. TOP, BOT:     1.00000000000000
       75.0000000000000
   79. CELL (1,7,15) THICKNESS <= 0. TOP, BOT:     1.00000000000000
       75.0000000000000
   80. CELL (1,7,16) THICKNESS <= 0. TOP, BOT:     1.00000000000000
       75.0000000000000
   81. CELL (1,7,17) THICKNESS <= 0. TOP, BOT:     1.00000000000000
       75.0000000000000
   82. CELL (1,7,18) THICKNESS <= 0. TOP, BOT:     1.00000000000000
       75.0000000000000
   83. CELL (1,7,19) THICKNESS <= 0. TOP, BOT:     1.00000000000000
       75.0000000000000
   84. CELL (1,7,20) THICKNESS <= 0. TOP, BOT:     1.00000000000000
       75.0000000000000
   85. CELL (1,8,8) THICKNESS <= 0. TOP, BOT:     1.00000000000000
       75.0000000000000
   86. CELL (1,8,9) THICKNESS <= 0. TOP, BOT:     1.00000000000000
       75.0000000000000
   87. CELL (1,8,10) THICKNESS <= 0. TOP, BOT:     1.00000000000000
       75.0000000000000
   88. CELL (1,8,11) THICKNESS <= 0. TOP, BOT:     1.00000000000000
       75.0000000000000
   89. CELL (1,8,13) THICKNESS <= 0. TOP, BOT:     1.00000000000000
       75.0000000000000
   90. CELL (1,8,14) THICKNESS <= 0. TOP, BOT:     1.00000000000000
       75.0000000000000
   91. CELL (1,8,15) THICKNESS <= 0. TOP, BOT:     1.00000000000000
       75.0000000000000
   92. CELL (1,8,16) THICKNESS <= 0. TOP, BOT:     1.00000000000000
       75.0000000000000
   93. CELL (1,8,17) THICKNESS <= 0. TOP, BOT:     1.00000000000000
       75.0000000000000
   94. CELL (1,8,18) THICKNESS <= 0. TOP, BOT:     1.00000000000000
       75.0000000000000
   95. CELL (1,8,19) THICKNESS <= 0. TOP, BOT:     1.00000000000000
       75.0000000000000
   96. CELL (1,8,20) THICKNESS <= 0. TOP, BOT:     1.00000000000000
       75.0000000000000
   97. CELL (1,9,8) THICKNESS <= 0. TOP, BOT:     1.00000000000000
       75.0000000000000
   98. CELL (1,9,9) THICKNESS <= 0. TOP, BOT:     1.00000000000000
       75.0000000000000
   99. CELL (1,9,10) THICKNESS <= 0. TOP, BOT:     1.00000000000000
       75.0000000000000
  100. CELL (1,9,11) THICKNESS <= 0. TOP, BOT:     1.00000000000000
       75.0000000000000
  101. CELL (1,9,12) THICKNESS <= 0. TOP, BOT:     1.00000000000000
       75.0000000000000
  102. CELL (1,9,13) THICKNESS <= 0. TOP, BOT:     1.00000000000000
       75.0000000000000
  103. CELL (1,9,14) THICKNESS <= 0. TOP, BOT:     1.00000000000000
       75.0000000000000
  104. CELL (1,9,15) THICKNESS <= 0. TOP, BOT:     1.00000000000000
       75.0000000000000
  105. CELL (1,9,16) THICKNESS <= 0. TOP, BOT:     1.00000000000000
       75.0000000000000
  106. CELL (1,9,17) THICKNESS <= 0. TOP, BOT:     1.00000000000000
       75.0000000000000
  107. CELL (1,9,18) THICKNESS <= 0. TOP, BOT:     1.00000000000000
       75.0000000000000
  108. CELL (1,9,19) THICKNESS <= 0. TOP, BOT:     1.00000000000000
       75.0000000000000
  109. CELL (1,9,20) THICKNESS <= 0. TOP, BOT:     1.00000000000000
       75.0000000000000
  110. CELL (1,10,8) THICKNESS <= 0. TOP, BOT:     1.00000000000000
       75.0000000000000
  111. CELL (1,10,9) THICKNESS <= 0. TOP, BOT:     1.00000000000000
       75.0000000000000
  112. CELL (1,10,10) THICKNESS <= 0. TOP, BOT:     1.00000000000000
       75.0000000000000
  113. CELL (1,10,11) THICKNESS <= 0. TOP, BOT:     1.00000000000000
       75.0000000000000
  114. CELL (1,10,12) THICKNESS <= 0. TOP, BOT:     1.00000000000000
       75.0000000000000
  115. CELL (1,10,13) THICKNESS <= 0. TOP, BOT:     1.00000000000000
       75.0000000000000
  116. CELL (1,10,14) THICKNESS <= 0. TOP, BOT:     1.00000000000000
       75.0000000000000
  117. CELL (1,10,15) THICKNESS <= 0. TOP, BOT:     1.00000000000000
       75.0000000000000
  118. CELL (1,10,16) THICKNESS <= 0. TOP, BOT:     1.00000000000000
       75.0000000000000
  119. CELL (1,10,17) THICKNESS <= 0. TOP, BOT:     1.00000000000000
       75.0000000000000
  120. CELL (1,10,18) THICKNESS <= 0. TOP, BOT:     1.00000000000000
       75.0000000000000
  121. CELL (1,10,19) THICKNESS <= 0. TOP, BOT:     1.00000000000000
       75.0000000000000
  122. CELL (1,10,20) THICKNESS <= 0. TOP, BOT:     1.00000000000000
       75.0000000000000
  123. CELL (1,11,8) THICKNESS <= 0. TOP, BOT:     1.00000000000000
       75.0000000000000
  124. CELL (1,11,9) THICKNESS <= 0. TOP, BOT:     1.00000000000000
       75.0000000000000
  125. CELL (1,11,10) THICKNESS <= 0. TOP, BOT:     1.00000000000000
       75.0000000000000
  126. CELL (1,11,11) THICKNESS <= 0. TOP, BOT:     1.00000000000000
       75.0000000000000
  127. CELL (1,11,12) THICKNESS <= 0. TOP, BOT:     1.00000000000000
       75.0000000000000
  128. CELL (1,11,13) THICKNESS <= 0. TOP, BOT:     1.00000000000000
       75.0000000000000
  129. CELL (1,11,14) THICKNESS <= 0. TOP, BOT:     1.00000000000000
       75.0000000000000
  130. CELL (1,11,15) THICKNESS <= 0. TOP, BOT:     1.00000000000000
       75.0000000000000
  131. CELL (1,11,16) THICKNESS <= 0. TOP, BOT:     1.00000000000000
       75.0000000000000
  132. CELL (1,11,17) THICKNESS <= 0. TOP, BOT:     1.00000000000000
       75.0000000000000
  133. CELL (1,11,18) THICKNESS <= 0. TOP, BOT:     1.00000000000000
       75.0000000000000
  134. CELL (1,11,19) THICKNESS <= 0. TOP, BOT:     1.00000000000000
       75.0000000000000
  135. CELL (1,11,20) THICKNESS <= 0. TOP, BOT:     1.00000000000000
       75.0000000000000
  136. CELL (1,12,8) THICKNESS <= 0. TOP, BOT:     1.00000000000000
       75.0000000000000
  137. CELL (1,12,9) THICKNESS <= 0. TOP, BOT:     1.00000000000000
       75.0000000000000
  138. CELL (1,12,10) THICKNESS <= 0. TOP, BOT:     1.00000000000000
       75.0000000000000
  139. CELL (1,12,11) THICKNESS <= 0. TOP, BOT:     1.00000000000000
       75.0000000000000
  140. CELL (1,12,12) THICKNESS <= 0. TOP, BOT:     1.00000000000000
       75.0000000000000
  141. CELL (1,12,13) THICKNESS <= 0. TOP, BOT:     1.00000000000000
       75.0000000000000
  142. CELL (1,12,14) THICKNESS <= 0. TOP, BOT:     1.00000000000000
       75.0000000000000
  143. CELL (1,12,15) THICKNESS <= 0. TOP, BOT:     1.00000000000000
       75.0000000000000
  144. CELL (1,12,16) THICKNESS <= 0. TOP, BOT:     1.00000000000000
       75.0000000000000
  145. CELL (1,12,17) THICKNESS <= 0. TOP, BOT:     1.00000000000000
       75.0000000000000
  146. CELL (1,12,18) THICKNESS <= 0. TOP, BOT:     1.00000000000000
       75.0000000000000
  147. CELL (1,12,19) THICKNESS <= 0. TOP, BOT:     1.00000000000000
       75.0000000000000
  148. CELL (1,12,20) THICKNESS <= 0. TOP, BOT:     1.00000000000000
       75.0000000000000
  149. CELL (1,13,8) THICKNESS <= 0. TOP, BOT:     1.00000000000000
       75.0000000000000
  150. CELL (1,13,9) THICKNESS <= 0. TOP, BOT:     1.00000000000000
       75.0000000000000
  151. CELL (1,13,10) THICKNESS <= 0. TOP, BOT:     1.00000000000000
       75.0000000000000
  152. CELL (1,13,11) THICKNESS <= 0. TOP, BOT:     1.00000000000000
       75.0000000000000
  153. CELL (1,13,12) THICKNESS <= 0. TOP, BOT:     1.00000000000000
       75.0000000000000
  154. CELL (1,13,13) THICKNESS <= 0. TOP, BOT:     1.00000000000000
       75.0000000000000
  155. CELL (1,13,14) THICKNESS <= 0. TOP, BOT:     1.00000000000000
       75.0000000000000
  156. CELL (1,13,15) THICKNESS <= 0. TOP, BOT:     1.00000000000000
       75.0000000000000
  157. CELL (1,13,16) THICKNESS <= 0. TOP, BOT:     1.00000000000000
       75.0000000000000
  158. CELL (1,13,17) THICKNESS <= 0. TOP, BOT:     1.00000000000000
       75.0000000000000
  159. CELL (1,13,18) THICKNESS <= 0. TOP, BOT:     1.00000000000000
       75.0000000000000
  160. CELL (1,13,19) THICKNESS <= 0. TOP, BOT:     1.00000000000000
       75.0000000000000
  161. CELL (1,13,20) THICKNESS <= 0. TOP, BOT:     1.00000000000000
       75.0000000000000
  162. CELL (1,14,8) THICKNESS <= 0. TOP, BOT:     1.00000000000000
       75.0000000000000
  163. CELL (1,14,9) THICKNESS <= 0. TOP, BOT:     1.00000000000000
       75.0000000000000
  164. CELL (1,14,10) THICKNESS <= 0. TOP, BOT:     1.00000000000000
       75.0000000000000
  165. CELL (1,14,11) THICKNESS <= 0. TOP, BOT:     1.00000000000000
       75.0000000000000
  166. CELL (1,14,12) THICKNESS <= 0. TOP, BOT:     1.00000000000000
       75.0000000000000
  167. CELL (1,14,13) THICKNESS <= 0. TOP, BOT:     1.00000000000000
       75.0000000000000
  168. CELL (1,14,14) THICKNESS <= 0. TOP, BOT:     1.00000000000000
       75.0000000000000
  169. CELL (1,14,15) THICKNESS <= 0. TOP, BOT:     1.00000000000000
       75.0000000000000
  170. CELL (1,14,16) THICKNESS <= 0. TOP, BOT:     1.00000000000000
       75.0000000000000
  171. CELL (1,14,17) THICKNESS <= 0. TOP, BOT:     1.00000000000000
       75.0000000000000
  172. CELL (1,14,18) THICKNESS <= 0. TOP, BOT:     1.00000000000000
       75.0000000000000
  173. CELL (1,14,19) THICKNESS <= 0. TOP, BOT:     1.00000000000000
       75.0000000000000
  174. CELL (1,14,20) THICKNESS <= 0. TOP, BOT:     1.00000000000000
       75.0000000000000
  175. CELL (1,15,8) THICKNESS <= 0. TOP, BOT:     1.00000000000000
       75.0000000000000
  176. CELL (1,15,9) THICKNESS <= 0. TOP, BOT:     1.00000000000000
       75.0000000000000
  177. CELL (1,15,10) THICKNESS <= 0. TOP, BOT:     1.00000000000000
       75.0000000000000
  178. CELL (1,15,11) THICKNESS <= 0. TOP, BOT:     1.00000000000000
       75.0000000000000
  179. CELL (1,15,12) THICKNESS <= 0. TOP, BOT:     1.00000000000000
       75.0000000000000
  180. CELL (1,15,13) THICKNESS <= 0. TOP, BOT:     1.00000000000000
       75.0000000000000
  181. CELL (1,15,14) THICKNESS <= 0. TOP, BOT:     1.00000000000000
       75.0000000000000
  182. CELL (1,15,15) THICKNESS <= 0. TOP, BOT:     1.00000000000000
       75.0000000000000
  183. CELL (1,15,16) THICKNESS <= 0. TOP, BOT:     1.00000000000000
       75.0000000000000
  184. CELL (1,15,17) THICKNESS <= 0. TOP, BOT:     1.00000000000000
       75.0000000000000
  185. CELL (1,15,18) THICKNESS <= 0. TOP, BOT:     1.00000000000000
       75.0000000000000
  186. CELL (1,15,19) THICKNESS <= 0. TOP, BOT:     1.00000000000000
       75.0000000000000
  187. CELL (1,15,20) THICKNESS <= 0. TOP, BOT:     1.00000000000000
       75.0000000000000
  188. CELL (1,16,8) THICKNESS <= 0. TOP, BOT:     1.00000000000000
       75.0000000000000
  189. CELL (1,16,9) THICKNESS <= 0. TOP, BOT:     1.00000000000000
       75.0000000000000
  190. CELL (1,16,10) THICKNESS <= 0. TOP, BOT:     1.00000000000000
       75.0000000000000
  191. CELL (1,16,11) THICKNESS <= 0. TOP, BOT:     1.00000000000000
       75.0000000000000
  192. CELL (1,16,12) THICKNESS <= 0. TOP, BOT:     1.00000000000000
       75.0000000000000
  193. CELL (1,16,13) THICKNESS <= 0. TOP, BOT:     1.00000000000000
       75.0000000000000
  194. CELL (1,16,14) THICKNESS <= 0. TOP, BOT:     1.00000000000000
       75.0000000000000
  195. CELL (1,16,15) THICKNESS <= 0. TOP, BOT:     1.00000000000000
       75.0000000000000
  196. CELL (1,16,16) THICKNESS <= 0. TOP, BOT:     1.00000000000000
       75.0000000000000
  197. CELL (1,16,17) THICKNESS <= 0. TOP, BOT:     1.00000000000000
       75.0000000000000
  198. CELL (1,16,18) THICKNESS <= 0. TOP, BOT:     1.00000000000000
       75.0000000000000
  199. CELL (1,16,19) THICKNESS <= 0. TOP, BOT:     1.00000000000000
       75.0000000000000
  200. CELL (1,16,20) THICKNESS <= 0. TOP, BOT:     1.00000000000000
       75.0000000000000
  201. CELL (1,17,8) THICKNESS <= 0. TOP, BOT:     1.00000000000000
       75.0000000000000
  202. CELL (1,17,9) THICKNESS <= 0. TOP, BOT:     1.00000000000000
       75.0000000000000
  203. CELL (1,17,10) THICKNESS <= 0. TOP, BOT:     1.00000000000000
       75.0000000000000
  204. CELL (1,17,11) THICKNESS <= 0. TOP, BOT:     1.00000000000000
       75.0000000000000
  205. CELL (1,17,12) THICKNESS <= 0. TOP, BOT:     1.00000000000000
       75.0000000000000
  206. CELL (1,17,13) THICKNESS <= 0. TOP, BOT:     1.00000000000000
       75.0000000000000
  207. CELL (1,17,14) THICKNESS <= 0. TOP, BOT:     1.00000000000000
       75.0000000000000
  208. CELL (1,17,15) THICKNESS <= 0. TOP, BOT:     1.00000000000000
       75.0000000000000
  209. CELL (1,17,16) THICKNESS <= 0. TOP, BOT:     1.00000000000000
       75.0000000000000
  210. CELL (1,17,17) THICKNESS <= 0. TOP, BOT:     1.00000000000000
       75.0000000000000
  211. CELL (1,17,18) THICKNESS <= 0. TOP, BOT:     1.00000000000000
       75.0000000000000
  212. CELL (1,17,19) THICKNESS <= 0. TOP, BOT:     1.00000000000000
       75.0000000000000
  213. CELL (1,17,20) THICKNESS <= 0. TOP, BOT:     1.00000000000000
       75.0000000000000
  214. CELL (1,18,8) THICKNESS <= 0. TOP, BOT:     1.00000000000000
       75.0000000000000
  215. CELL (1,18,9) THICKNESS <= 0. TOP, BOT:     1.00000000000000
       75.0000000000000
  216. CELL (1,18,10) THICKNESS <= 0. TOP, BOT:     1.00000000000000
       75.0000000000000
  217. CELL (1,18,11) THICKNESS <= 0. TOP, BOT:     1.00000000000000
       75.0000000000000
  218. CELL (1,18,12) THICKNESS <= 0. TOP, BOT:     1.00000000000000
       75.0000000000000
  219. CELL (1,18,13) THICKNESS <= 0. TOP, BOT:     1.00000000000000
       75.0000000000000
  220. CELL (1,18,14) THICKNESS <= 0. TOP, BOT:     1.00000000000000
       75.0000000000000
  221. CELL (1,18,15) THICKNESS <= 0. TOP, BOT:     1.00000000000000
       75.0000000000000
  222. CELL (1,18,16) THICKNESS <= 0. TOP, BOT:     1.00000000000000
       75.0000000000000
  223. CELL (1,18,17) THICKNESS <= 0. TOP, BOT:     1.00000000000000
       75.0000000000000
  224. CELL (1,18,18) THICKNESS <= 0. TOP, BOT:     1.00000000000000
       75.0000000000000
  225. CELL (1,18,19) THICKNESS <= 0. TOP, BOT:     1.00000000000000
       75.0000000000000
  226. CELL (1,18,20) THICKNESS <= 0. TOP, BOT:     1.00000000000000
       75.0000000000000
  227. CELL (1,19,8) THICKNESS <= 0. TOP, BOT:     1.00000000000000
       75.0000000000000
  228. CELL (1,19,9) THICKNESS <= 0. TOP, BOT:     1.00000000000000
       75.0000000000000
  229. CELL (1,19,10) THICKNESS <= 0. TOP, BOT:     1.00000000000000
       75.0000000000000
  230. CELL (1,19,11) THICKNESS <= 0. TOP, BOT:     1.00000000000000
       75.0000000000000
  231. CELL (1,19,12) THICKNESS <= 0. TOP, BOT:     1.00000000000000
       75.0000000000000
  232. CELL (1,19,13) THICKNESS <= 0. TOP, BOT:     1.00000000000000
       75.0000000000000
  233. CELL (1,19,14) THICKNESS <= 0. TOP, BOT:     1.00000000000000
       75.0000000000000
  234. CELL (1,19,15) THICKNESS <= 0. TOP, BOT:     1.00000000000000
       75.0000000000000
  235. CELL (1,19,16) THICKNESS <= 0. TOP, BOT:     1.00000000000000
       75.0000000000000
  236. CELL (1,19,17) THICKNESS <= 0. TOP, BOT:     1.00000000000000
       75.0000000000000
  237. CELL (1,19,18) THICKNESS <= 0. TOP, BOT:     1.00000000000000
       75.0000000000000
  238. CELL (1,19,19) THICKNESS <= 0. TOP, BOT:     1.00000000000000
       75.0000000000000
  239. CELL (1,19,20) THICKNESS <= 0. TOP, BOT:     1.00000000000000
       75.0000000000000
  240. CELL (1,20,8) THICKNESS <= 0. TOP, BOT:     1.00000000000000
       75.0000000000000
  241. CELL (1,20,9) THICKNESS <= 0. TOP, BOT:     1.00000000000000
       75.0000000000000
  242. CELL (1,20,10) THICKNESS <= 0. TOP, BOT:     1.00000000000000
       75.0000000000000
  243. CELL (1,20,11) THICKNESS <= 0. TOP, BOT:     1.00000000000000
       75.0000000000000
  244. CELL (1,20,12) THICKNESS <= 0. TOP, BOT:     1.00000000000000
       75.0000000000000
  245. CELL (1,20,13) THICKNESS <= 0. TOP, BOT:     1.00000000000000
       75.0000000000000
  246. CELL (1,20,14) THICKNESS <= 0. TOP, BOT:     1.00000000000000
       75.0000000000000
  247. CELL (1,20,15) THICKNESS <= 0. TOP, BOT:     1.00000000000000
       75.0000000000000
  248. CELL (1,20,16) THICKNESS <= 0. TOP, BOT:     1.00000000000000
       75.0000000000000
  249. CELL (1,20,17) THICKNESS <= 0. TOP, BOT:     1.00000000000000
       75.0000000000000
  250. CELL (1,20,18) THICKNESS <= 0. TOP, BOT:     1.00000000000000
       75.0000000000000
  251. CELL (1,20,19) THICKNESS <= 0. TOP, BOT:     1.00000000000000
       75.0000000000000
  252. CELL (1,20,20) THICKNESS <= 0. TOP, BOT:     1.00000000000000
       75.0000000000000
  253. CELL (1,21,8) THICKNESS <= 0. TOP, BOT:     1.00000000000000
       75.0000000000000
  254. CELL (1,21,9) THICKNESS <= 0. TOP, BOT:     1.00000000000000
       75.0000000000000
  255. CELL (1,21,10) THICKNESS <= 0. TOP, BOT:     1.00000000000000
       75.0000000000000
  256. CELL (1,21,11) THICKNESS <= 0. TOP, BOT:     1.00000000000000
       75.0000000000000
  257. CELL (1,21,12) THICKNESS <= 0. TOP, BOT:     1.00000000000000
       75.0000000000000
  258. CELL (1,21,13) THICKNESS <= 0. TOP, BOT:     1.00000000000000
       75.0000000000000
  259. CELL (1,21,14) THICKNESS <= 0. TOP, BOT:     1.00000000000000
       75.0000000000000
  260. CELL (1,21,15) THICKNESS <= 0. TOP, BOT:     1.00000000000000
       75.0000000000000
  261. CELL (1,21,16) THICKNESS <= 0. TOP, BOT:     1.00000000000000
       75.0000000000000
  262. CELL (1,21,17) THICKNESS <= 0. TOP, BOT:     1.00000000000000
       75.0000000000000
  263. CELL (1,21,18) THICKNESS <= 0. TOP, BOT:     1.00000000000000
       75.0000000000000
  264. CELL (1,21,19) THICKNESS <= 0. TOP, BOT:     1.00000000000000
       75.0000000000000
  265. CELL (1,21,20) THICKNESS <= 0. TOP, BOT:     1.00000000000000
       75.0000000000000
  266. CELL (1,22,8) THICKNESS <= 0. TOP, BOT:     1.00000000000000
       75.0000000000000
  267. CELL (1,22,9) THICKNESS <= 0. TOP, BOT:     1.00000000000000
       75.0000000000000
  268. CELL (1,22,10) THICKNESS <= 0. TOP, BOT:     1.00000000000000
       75.0000000000000
  269. CELL (1,22,11) THICKNESS <= 0. TOP, BOT:     1.00000000000000
       75.0000000000000
  270. CELL (1,22,12) THICKNESS <= 0. TOP, BOT:     1.00000000000000
       75.0000000000000
  271. CELL (1,22,13) THICKNESS <= 0. TOP, BOT:     1.00000000000000
       75.0000000000000
  272. CELL (1,22,14) THICKNESS <= 0. TOP, BOT:     1.00000000000000
       75.0000000000000
  273. CELL (1,22,15) THICKNESS <= 0. TOP, BOT:     1.00000000000000
       75.0000000000000
  274. CELL (1,22,16) THICKNESS <= 0. TOP, BOT:     1.00000000000000
       75.0000000000000
  275. CELL (1,22,17) THICKNESS <= 0. TOP, BOT:     1.00000000000000
       75.0000000000000
  276. CELL (1,22,18) THICKNESS <= 0. TOP, BOT:     1.00000000000000
       75.0000000000000
  277. CELL (1,22,19) THICKNESS <= 0. TOP, BOT:     1.00000000000000
       75.0000000000000
  278. CELL (1,22,20) THICKNESS <= 0. TOP, BOT:     1.00000000000000
       75.0000000000000
  279. CELL (1,23,8) THICKNESS <= 0. TOP, BOT:     1.00000000000000
       75.0000000000000
  280. CELL (1,23,9) THICKNESS <= 0. TOP, BOT:     1.00000000000000
       75.0000000000000
  281. CELL (1,23,10) THICKNESS <= 0. TOP, BOT:     1.00000000000000
       75.0000000000000
  282. CELL (1,23,11) THICKNESS <= 0. TOP, BOT:     1.00000000000000
       75.0000000000000
  283. CELL (1,23,12) THICKNESS <= 0. TOP, BOT:     1.00000000000000
       75.0000000000000
  284. CELL (1,23,13) THICKNESS <= 0. TOP, BOT:     1.00000000000000
       75.0000000000000
  285. CELL (1,23,14) THICKNESS <= 0. TOP, BOT:     1.00000000000000
       75.0000000000000
  286. CELL (1,23,15) THICKNESS <= 0. TOP, BOT:     1.00000000000000
       75.0000000000000
  287. CELL (1,23,16) THICKNESS <= 0. TOP, BOT:     1.00000000000000
       75.0000000000000
  288. CELL (1,23,17) THICKNESS <= 0. TOP, BOT:     1.00000000000000
       75.0000000000000
  289. CELL (1,23,18) THICKNESS <= 0. TOP, BOT:     1.00000000000000
       75.0000000000000
  290. CELL (1,23,19) THICKNESS <= 0. TOP, BOT:     1.00000000000000
       75.0000000000000
  291. CELL (1,23,20) THICKNESS <= 0. TOP, BOT:     1.00000000000000
       75.0000000000000
  292. CELL (1,24,8) THICKNESS <= 0. TOP, BOT:     1.00000000000000
       75.0000000000000
  293. CELL (1,24,9) THICKNESS <= 0. TOP, BOT:     1.00000000000000
       75.0000000000000
  294. CELL (1,24,10) THICKNESS <= 0. TOP, BOT:     1.00000000000000
       75.0000000000000
  295. CELL (1,24,11) THICKNESS <= 0. TOP, BOT:     1.00000000000000
       75.0000000000000
  296. CELL (1,24,12) THICKNESS <= 0. TOP, BOT:     1.00000000000000
       75.0000000000000
  297. CELL (1,24,13) THICKNESS <= 0. TOP, BOT:     1.00000000000000
       75.0000000000000
  298. CELL (1,24,14) THICKNESS <= 0. TOP, BOT:     1.00000000000000
       75.0000000000000
  299. CELL (1,24,15) THICKNESS <= 0. TOP, BOT:     1.00000000000000
       75.0000000000000
  300. CELL (1,24,16) THICKNESS <= 0. TOP, BOT:     1.00000000000000
       75.0000000000000
  301. CELL (1,24,17) THICKNESS <= 0. TOP, BOT:     1.00000000000000
       75.0000000000000
  302. CELL (1,24,18) THICKNESS <= 0. TOP, BOT:     1.00000000000000
       75.0000000000000
  303. CELL (1,24,19) THICKNESS <= 0. TOP, BOT:     1.00000000000000
       75.0000000000000
  304. CELL (1,24,20) THICKNESS <= 0. TOP, BOT:     1.00000000000000
       75.0000000000000
  305. CELL (1,25,8) THICKNESS <= 0. TOP, BOT:     1.00000000000000
       75.0000000000000
  306. CELL (1,25,9) THICKNESS <= 0. TOP, BOT:     1.00000000000000
       75.0000000000000
  307. CELL (1,25,10) THICKNESS <= 0. TOP, BOT:     1.00000000000000
       75.0000000000000
  308. CELL (1,25,11) THICKNESS <= 0. TOP, BOT:     1.00000000000000
       75.0000000000000
  309. CELL (1,25,12) THICKNESS <= 0. TOP, BOT:     1.00000000000000
       75.0000000000000
  310. CELL (1,25,13) THICKNESS <= 0. TOP, BOT:     1.00000000000000
       75.0000000000000
  311. CELL (1,25,14) THICKNESS <= 0. TOP, BOT:     1.00000000000000
       75.0000000000000
  312. CELL (1,25,15) THICKNESS <= 0. TOP, BOT:     1.00000000000000
       75.0000000000000
  313. CELL (1,25,16) THICKNESS <= 0. TOP, BOT:     1.00000000000000
       75.0000000000000
  314. CELL (1,25,17) THICKNESS <= 0. TOP, BOT:     1.00000000000000
       75.0000000000000
  315. CELL (1,25,18) THICKNESS <= 0. TOP, BOT:     1.00000000000000
       75.0000000000000
  316. CELL (1,25,19) THICKNESS <= 0. TOP, BOT:     1.00000000000000
       75.0000000000000
  317. CELL (1,25,20) THICKNESS <= 0. TOP, BOT:     1.00000000000000
       75.0000000000000

UNIT ERROR REPORT:

  1. ERROR OCCURRED WHILE READING FILE 'c:\Users\omowumie\OneDrive -
     University of Delaware -
     o365\Documents\GitHub\flopy_project\work\ex11\modflow_project.dis'
